Circuit: * C:\Users\Tom\Documents\LEGO STEM\ElectromagnetLego\LTSpice Simulation\PWMMFETSimulation.asc

Limiting rise time of source v2 to 5e-005
Limiting fall time of source v2 to 5e-005
Direct Newton iteration for .op point succeeded.

Date: Fri Jan 24 15:36:49 2020
Total elapsed time: 0.144 seconds.

tnom = 27
temp = 27
method = modified trap
totiter = 25154
traniter = 25147
tranpoints = 8105
accept = 6090
rejected = 2015
matrix size = 15
fillins = 5
solver = Normal
Matrix Compiler1: 934 bytes object code size  0.2/0.1/[0.1]
Matrix Compiler2: 1.16 KB object code size  0.1/0.2/[0.1]

