Circuit: * C:\Users\Tom\Documents\LEGO STEM\ElectromagnetLego\LTSpice Simulation\PWMMFETSimulation.asc

Limiting rise time of source v2 to 5e-006
Limiting fall time of source v2 to 5e-006
Direct Newton iteration for .op point succeeded.

Date: Fri Dec 20 09:46:16 2019
Total elapsed time: 1.232 seconds.

tnom = 27
temp = 27
method = modified trap
totiter = 552556
traniter = 552549
tranpoints = 171994
accept = 126985
rejected = 45009
matrix size = 15
fillins = 5
solver = Normal
Matrix Compiler1: 934 bytes object code size  0.2/0.1/[0.1]
Matrix Compiler2: off  [0.1]/0.2/0.1

