Circuit: * C:\Users\Tom\Documents\LEGO STEM\ElectromagnetLego\LTSpice Simulation\PWMMFETSimulation.asc

Limiting rise time of source v2 to 5e-006
Limiting fall time of source v2 to 5e-006
Direct Newton iteration for .op point succeeded.

Date: Fri Nov 01 12:02:58 2019
Total elapsed time: 6.683 seconds.

tnom = 27
temp = 27
method = modified trap
totiter = 2924330
traniter = 2924322
tranpoints = 927678
accept = 669781
rejected = 257897
matrix size = 14
fillins = 4
solver = Normal
Matrix Compiler1: 884 bytes object code size  0.3/0.2/[0.1]
Matrix Compiler2: off  [0.1]/0.3/0.1

