Circuit: * C:\Users\Tom\Documents\LEGO STEM\ElectromagnetLego\LTSpice Simulation\SwitchedModeController.asc

Limiting rise time of source v2 to 2.5e-005
Limiting fall time of source v2 to 2.5e-005
Per .tran options, skipping operating point for transient analysis.
Ignoring empty pin current: Ix(ea1:1)
Ignoring empty pin current: Ix(ea1:2)
Ignoring empty pin current: Ix(ea1:3)
Ignoring empty pin current: Ix(ea1:4)
Ignoring empty pin current: Ix(ea1:5)
Ignoring empty pin current: Ix(ea2:1)
Ignoring empty pin current: Ix(ea2:2)
Ignoring empty pin current: Ix(ea2:3)
Ignoring empty pin current: Ix(ea2:4)
Ignoring empty pin current: Ix(ea2:5)
Ignoring empty pin current: Ix(u1:1)
Ignoring empty pin current: Ix(u1:2)
Ignoring empty pin current: Ix(u1:3)
Ignoring empty pin current: Ix(u1:5)
Ignoring empty pin current: Ix(u2:1)
Ignoring empty pin current: Ix(u2:2)
Ignoring empty pin current: Ix(u2:3)
Ignoring empty pin current: Ix(u2:4)
Ignoring empty pin current: Ix(u2:5)
Changing Tseed to 9.76562e-009
Changing Tseed to 9.76563e-011
Heightened Def Con from 0.0317924 to 0.0317924
Heightened Def Con from 0.039293 to 0.039293
Heightened Def Con from 0.0732935 to 0.0732935
Heightened Def Con from 0.0902969 to 0.0902969
Heightened Def Con from 0.0997935 to 0.0997935

Date: Sun Jan 26 13:56:09 2020
Total elapsed time: 11.726 seconds.

tnom = 27
temp = 27
method = modified trap
totiter = 1220492
traniter = 1220492
tranpoints = 374412
accept = 267378
rejected = 107037
matrix size = 52
fillins = 11
solver = Normal
Matrix Compiler1: 2.71 KB object code size  0.6/0.4/[0.2]
Matrix Compiler2: 4.01 KB object code size  0.4/0.6/[0.3]

